LAMMPS (29 Sep 2021 - Update 3)
#!/usr/bin/lammps

variable up equal 1.0e-6

variable nb_step universe 1250

variable temp equal 500

# metal units, elastic constants in GPa
units           metal

# Define minimization parameters
variable etol equal 0.0
variable ftol equal 1.0e-10
variable maxiter equal 10000
variable maxeval equal 10000
variable dmax equal 1.0e-2
variable maxiter_sd equal 100

atom_style      charge
boundary        p p p

read_data       Init.lmp
Reading data file ...
  triclinic box = (0.0000000 0.0000000 0.0000000) to (5.9792000 118.72500 252.97700) with tilt (2.9896000 0.0000000 0.0000000)
  reading atoms ...
  10500 atoms
#read_restart	dump_restart.1500000

compute         pe all pe/atom
compute         s all stress/atom NULL

### OUTPUT
### Output thermodynamics info in out file every N steps
thermo          100
thermo_style    custom step time temp press pe enthalpy etotal vol lx ly lz pxx pyy pzz pxy pxz pyz
thermo_modify   norm no

dump            1 all custom 100 MD_*.xsf id type element xu yu zu q c_pe c_s[1] c_s[2] c_s[3] c_s[4] c_s[5] c_s[6]
dump_modify     1 sort id element Mg Si O

include         Mg2SiO4.pot
#####################################################################
### This script is designed for atomistic modelling of Mg2SiO4
### forsterite using the interatomic potential from:
### A. Pedone et al., J.Phys.Chem.B 110 (2006) 11780-11795
#####################################################################

#####################################################################
###  ATOM DEFINITION
#####################################################################
### Define atom groups
group           Mg type 1
3000 atoms in group Mg
group           Si type 2
1500 atoms in group Si
group           O  type 3
6000 atoms in group O
### Set electric charge and mass
set             group Mg charge +1.2
Setting atom values ...
  3000 settings made for charge
mass            1 24.0
set             group Si charge +2.4
Setting atom values ...
  1500 settings made for charge
mass            2 28.0
set             group O charge -1.2
Setting atom values ...
  6000 settings made for charge
mass            3 16.0

#####################################################################
###  INTERATOMIC POTENTIAL AND OUTPUT
#####################################################################
### K-space: long-range Coulomb is computed in recip. space
kspace_style    pppm 1.0e-6
### Potential type: Buckingham + long-range Coulomb
pair_style      hybrid/overlay morse 15.0 coul/long 12.0 lj/cut 1.452246
### Coulomb interaction between all ions
pair_coeff      * *  coul/long
### Morse para: i j  morse    D0        a_ij      r0
pair_coeff      * *  morse  0.000000  0.100000  0.000000    #Set all=0
pair_coeff      1 3  morse  0.038908  2.281000  2.586153    #Mg-O
pair_coeff      2 3  morse  0.340554  2.006700  2.100000    #Si-O
pair_coeff      3 3  morse  0.042395  1.379316  3.618701    #O-O
### LJ para:    i j  lj/cut epsilon     sigma     rc
pair_coeff      * *  lj/cut 0.000000  0.000000  1.452246    #Set all=0
pair_coeff      1 3  lj/cut 0.250000  1.143529  1.283569    #Mg-O
pair_coeff      2 3  lj/cut 0.250000  1.000000  1.122462    #Si-O
pair_coeff      3 3  lj/cut 0.250000  1.293804  1.452246    #O-O

pair_modify     table 0
neigh_modify    one 10000  page 100000

# Setup neighbor style
neighbor 1.0 nsq
neigh_modify once no every 1 delay 0 check yes

pair_modify     table 0

min_style       cg
minimize 0 1e-10 10000 10000
PPPM initialization ...
  G vector (1/distance) = 0.29830633
  grid = 20 160 270
  stencil order = 5
  estimated absolute RMS force accuracy = 1.5660982e-05
  estimated relative force accuracy = 1.087595e-06
  3d grid and FFT values/proc = 358382 217600
  update every 1 steps, delay 0 steps, check yes
Step Time Temp Press PotEng Enthalpy TotEng Volume Lx Ly Lz Pxx Pyy Pzz Pxy Pxz Pyz
0            0            0    14234.074   -129491.31   -127895.85   -129491.31    179583.44       5.9792      118.725      252.977    9032.3808     33644.92    24.920144     310.5445   0.56058566   -14.159038
Loop time of 17.6612 on 4 procs for 15 steps with 10500 atoms

Minimization stats:
  Stopping criterion = linesearch alpha is zero
  Energy initial, next-to-last, final =
  Force two-norm initial, final = 0.67033655 0.0095251603
  Force max component initial, final = 0.034141386 0.00050670848
  Final line search alpha, max atom move = 0.00012207031 6.1854063e-08
  Iterations, force evaluations = 15 55

velocity        all create 500 5862775 dist gaussian

fix             Thermostat all nvt temp 500 500 $(10.0*dt) drag 1.0
fix             Thermostat all nvt temp 500 500 0.010000000000000000208 drag 1.0
timestep 1e-4
run 5000
PPPM initialization ...
  G vector (1/distance) = 0.29830633
  grid = 20 160 270
  stencil order = 5
  estimated absolute RMS force accuracy = 1.5660982e-05
  estimated relative force accuracy = 1.087595e-06
  3d grid and FFT values/proc = 358382 217600
Step Time Temp Press PotEng Enthalpy TotEng Volume Lx Ly Lz Pxx Pyy Pzz Pxy Pxz Pyz
15            0          500    18270.856   -129491.32   -126764.84   -128812.76    179583.44       5.9792      118.725      252.977     13073.66    37629.516    4109.3901    280.03285    43.043311   -34.037509
Averages over the last 26 of 52 rows, steps 2600 to 5015:
Temp Press PotEng Enthalpy TotEng Volume Lx Ly Lz Pxx Pyy Pzz Pxy Pxz Pyz
500.133 25367.9 -128812 -125290 -128133 179583 5.9792 118.725 252.977 20633.8 46015.9 9454.02 349.02 -54.6462 396.328
Loop time of 1713.7 on 4 procs for 5000 steps with 10500 atoms

#restart 10000 dump_restart
#
#timestep 1e-3
#run 10000
#
#min_style       cg
