LAMMPS (29 Sep 2021 - Update 3)
#!/usr/bin/lammps

variable up equal 1.0e-6
variable zlo_strain equal 7.5 # low bound for slabs fixed
variable zhi_strain equal 83.5 # high bound for slabs fixed

variable nb_step universe 1250

variable temp equal 500

# metal units, elastic constants in GPa
units           metal

# Define minimization parameters
variable etol equal 0.0
variable ftol equal 1.0e-10
variable maxiter equal 10000
variable maxeval equal 10000
variable dmax equal 1.0e-2
variable maxiter_sd equal 100

atom_style      charge
boundary        p p p

read_data       Init.lmp
Reading data file ...
  triclinic box = (0.0000000 0.0000000 0.0000000) to (10.198450 118.72500 89.688000) with tilt (5.0990000 0.0000000 0.0000000)
  reading atoms ...
  10500 atoms
#read_restart	dump_restart.1500000

region FixedZoneReg_up block INF INF INF INF 83.5 INF
group FixedZone_up region FixedZoneReg_up
750 atoms in group FixedZone_up

region FixedZoneReg_down block INF INF INF INF INF 7.5
group FixedZone_down region FixedZoneReg_down
1000 atoms in group FixedZone_down

group ForMD subtract all FixedZone_down FixedZone_up
8750 atoms in group ForMD

compute         pe all pe/atom
compute         s all stress/atom NULL

### OUTPUT
### Output thermodynamics info in out file every N steps
thermo          100
thermo_style    custom step time temp press pe enthalpy etotal vol lx ly lz pxx pyy pzz pxy pxz pyz
thermo_modify   norm no

dump            1 all custom 100 MD_*.xsf id type element xu yu zu q c_pe c_s[1] c_s[2] c_s[3] c_s[4] c_s[5] c_s[6]
dump_modify     1 sort id element Mg Si O

include         Mg2SiO4.pot
#####################################################################
### This script is designed for atomistic modelling of Mg2SiO4
### forsterite using the interatomic potential from:
### A. Pedone et al., J.Phys.Chem.B 110 (2006) 11780-11795
#####################################################################

#####################################################################
###  ATOM DEFINITION
#####################################################################
### Define atom groups
group           Mg type 1
3000 atoms in group Mg
group           Si type 2
1500 atoms in group Si
group           O  type 3
6000 atoms in group O
### Set electric charge and mass
set             group Mg charge +1.2
Setting atom values ...
  3000 settings made for charge
mass            1 24.0
set             group Si charge +2.4
Setting atom values ...
  1500 settings made for charge
mass            2 28.0
set             group O charge -1.2
Setting atom values ...
  6000 settings made for charge
mass            3 16.0

#####################################################################
###  INTERATOMIC POTENTIAL AND OUTPUT
#####################################################################
### K-space: long-range Coulomb is computed in recip. space
kspace_style    pppm 1.0e-6
### Potential type: Buckingham + long-range Coulomb
pair_style      hybrid/overlay morse 15.0 coul/long 12.0 lj/cut 1.452246
### Coulomb interaction between all ions
pair_coeff      * *  coul/long
### Morse para: i j  morse    D0        a_ij      r0
pair_coeff      * *  morse  0.000000  0.100000  0.000000    #Set all=0
pair_coeff      1 3  morse  0.038908  2.281000  2.586153    #Mg-O
pair_coeff      2 3  morse  0.340554  2.006700  2.100000    #Si-O
pair_coeff      3 3  morse  0.042395  1.379316  3.618701    #O-O
### LJ para:    i j  lj/cut epsilon     sigma     rc
pair_coeff      * *  lj/cut 0.000000  0.000000  1.452246    #Set all=0
pair_coeff      1 3  lj/cut 0.250000  1.143529  1.283569    #Mg-O
pair_coeff      2 3  lj/cut 0.250000  1.000000  1.122462    #Si-O
pair_coeff      3 3  lj/cut 0.250000  1.293804  1.452246    #O-O

pair_modify     table 0
neigh_modify    one 10000  page 100000

# Setup neighbor style
neighbor 1.0 nsq
neigh_modify once no every 1 delay 0 check yes

pair_modify     table 0

fix 1 FixedZone_up setforce 0 0 0
fix 2 FixedZone_down setforce 0 0 0

min_style       cg
minimize 0 1e-10 10000 10000
PPPM initialization ...
  G vector (1/distance) = 0.3021998
  grid = 30 180 125
  stencil order = 5
  estimated absolute RMS force accuracy = 1.4163582e-05
  estimated relative force accuracy = 9.836063e-07
  3d grid and FFT values/proc = 247641 172800
  update every 1 steps, delay 0 steps, check yes
Step Time Temp Press PotEng Enthalpy TotEng Volume Lx Ly Lz Pxx Pyy Pzz Pxy Pxz Pyz
0            0            0     57835.02   -128313.41   -124393.36   -128313.41    108595.21     10.19845      118.725       89.688    22646.088     94583.32    56275.651    1104.8177    1233.1131    519.61225
Loop time of 10.0978 on 4 procs for 11 steps with 10500 atoms

Minimization stats:
  Stopping criterion = linesearch alpha is zero
  Energy initial, next-to-last, final =
  Force two-norm initial, final = 0.31733493 0.0074372709
  Force max component initial, final = 0.032922836 0.0010857228
  Final line search alpha, max atom move = 0.00012207031 1.3253452e-07
  Iterations, force evaluations = 11 47

velocity        ForMD create 500 5862775 dist gaussian

fix             Thermostat ForMD nvt temp 500 500 $(10.0*dt) drag 1.0
fix             Thermostat ForMD nvt temp 500 500 0.010000000000000000208 drag 1.0
timestep 1e-4
run 5000
PPPM initialization ...
  G vector (1/distance) = 0.3021998
  grid = 30 180 125
  stencil order = 5
  estimated absolute RMS force accuracy = 1.4163582e-05
  estimated relative force accuracy = 9.836063e-07
  3d grid and FFT values/proc = 247641 172800
Step Time Temp Press PotEng Enthalpy TotEng Volume Lx Ly Lz Pxx Pyy Pzz Pxy Pxz Pyz
11            0    416.65873    63397.393   -128313.41    -123450.9   -127747.96    108595.21     10.19845      118.725       89.688    28189.362    100116.47    61886.341    1075.8317    1290.0568    464.78859
Averages over the last 26 of 52 rows, steps 2600 to 5011:
Temp Press PotEng Enthalpy TotEng Volume Lx Ly Lz Pxx Pyy Pzz Pxy Pxz Pyz
416.362 78465.9 -127745 -121862 -127180 108595 10.1984 118.725 89.688 42228.1 116385 76784.1 1255.26 1076.27 562.114
Loop time of 974.838 on 4 procs for 5000 steps with 10500 atoms

#restart 10000 dump_restart

fix             Thermostat2 ForMD nvt temp 500 500 $(10.0*dt) drag 1.0
fix             Thermostat2 ForMD nvt temp 500 500 0.0010000000000000000208 drag 1.0
timestep 1e-3
run 10000
PPPM initialization ...
  G vector (1/distance) = 0.3021998
  grid = 30 180 125
  stencil order = 5
  estimated absolute RMS force accuracy = 1.4163582e-05
  estimated relative force accuracy = 9.836063e-07
  3d grid and FFT values/proc = 247641 172800
Step Time Temp Press PotEng Enthalpy TotEng Volume Lx Ly Lz Pxx Pyy Pzz Pxy Pxz Pyz
5011          0.5    411.82169    75511.409   -127740.96   -122063.93   -127182.08    108595.21     10.19845      118.725       89.688    38014.326     115606.1    72913.803    955.89352    1479.5707    481.20587
Averages over the last 51 of 102 rows, steps 10100 to 15011:
Temp Press PotEng Enthalpy TotEng Volume Lx Ly Lz Pxx Pyy Pzz Pxy Pxz Pyz
898.984 92200.1 -127063 -119594 -125843 108595 10.1984 118.725 89.688 49667.8 137334 89598 1903.44 1463.57 659.587
Loop time of 2324.78 on 4 procs for 10000 steps with 10500 atoms

#min_style       cg
