LAMMPS (29 Sep 2021 - Update 3)
#!/usr/bin/lammps

variable up equal 1.0e-6

variable nb_step universe 1250

variable temp equal 500

# metal units, elastic constants in GPa
units           metal

# Define minimization parameters
variable etol equal 0.0
variable ftol equal 1.0e-10
variable maxiter equal 10000
variable maxeval equal 10000
variable dmax equal 1.0e-2
variable maxiter_sd equal 100

atom_style      charge
boundary        p p p

read_data       Init.lmp
Reading data file ...
  orthogonal box = (0.0000000 0.0000000 0.0000000) to (30.595500 17.937600 14.247000)
  reading atoms ...
  756 atoms
#read_restart	dump_restart.1500000

compute         pe all pe/atom
compute         s all stress/atom NULL

### OUTPUT
### Output thermodynamics info in out file every N steps
thermo          100
thermo_style    custom step time temp press pe enthalpy etotal vol lx ly lz pxx pyy pzz pxy pxz pyz
thermo_modify   norm no

dump            1 all custom 100 MD_*.xsf id type element xu yu zu q c_pe c_s[1] c_s[2] c_s[3] c_s[4] c_s[5] c_s[6]
dump_modify     1 sort id element Mg Si O

include         Mg2SiO4.pot
#####################################################################
### This script is designed for atomistic modelling of Mg2SiO4
### forsterite using the interatomic potential from:
### A. Pedone et al., J.Phys.Chem.B 110 (2006) 11780-11795
#####################################################################

#####################################################################
###  ATOM DEFINITION
#####################################################################
### Define atom groups
group           Mg type 1
216 atoms in group Mg
group           Si type 2
108 atoms in group Si
group           O  type 3
432 atoms in group O
### Set electric charge and mass
set             group Mg charge +1.2
Setting atom values ...
  216 settings made for charge
mass            1 24.0
set             group Si charge +2.4
Setting atom values ...
  108 settings made for charge
mass            2 28.0
set             group O charge -1.2
Setting atom values ...
  432 settings made for charge
mass            3 16.0

#####################################################################
###  INTERATOMIC POTENTIAL AND OUTPUT
#####################################################################
### K-space: long-range Coulomb is computed in recip. space
kspace_style    pppm 1.0e-6
### Potential type: Buckingham + long-range Coulomb
pair_style      hybrid/overlay morse 15.0 coul/long 12.0 lj/cut 1.452246
### Coulomb interaction between all ions
pair_coeff      * *  coul/long
### Morse para: i j  morse    D0        a_ij      r0
pair_coeff      * *  morse  0.000000  0.100000  0.000000    #Set all=0
pair_coeff      1 3  morse  0.038908  2.281000  2.586153    #Mg-O
pair_coeff      2 3  morse  0.340554  2.006700  2.100000    #Si-O
pair_coeff      3 3  morse  0.042395  1.379316  3.618701    #O-O
### LJ para:    i j  lj/cut epsilon     sigma     rc
pair_coeff      * *  lj/cut 0.000000  0.000000  1.452246    #Set all=0
pair_coeff      1 3  lj/cut 0.250000  1.143529  1.283569    #Mg-O
pair_coeff      2 3  lj/cut 0.250000  1.000000  1.122462    #Si-O
pair_coeff      3 3  lj/cut 0.250000  1.293804  1.452246    #O-O

pair_modify     table 0
neigh_modify    one 10000  page 100000

# Setup neighbor style
neighbor 1.0 nsq
neigh_modify once no every 1 delay 0 check yes

pair_modify     table 0

min_style       cg
minimize 0 1e-10 10000 10000
PPPM initialization ...
  G vector (1/distance) = 0.30113416
  grid = 45 32 27
  stencil order = 5
  estimated absolute RMS force accuracy = 1.5792659e-05
  estimated relative force accuracy = 1.0967394e-06
  3d grid and FFT values/proc = 22678 10080
  update every 1 steps, delay 0 steps, check yes
Step Time Temp Press PotEng Enthalpy TotEng Volume Lx Ly Lz Pxx Pyy Pzz Pxy Pxz Pyz
0            0            0    34378.452   -9336.7409   -9168.9682   -9336.7409    7818.8938      30.5955      17.9376       14.247    16188.768    23884.605    63061.982   -1.2717645    7.5863487 -0.00011022004
Loop time of 5.15817 on 4 procs for 134 steps with 756 atoms

Minimization stats:
  Stopping criterion = force tolerance
  Energy initial, next-to-last, final =
  Force two-norm initial, final = 0.028903223 9.1426844e-11
  Force max component initial, final = 0.0033717562 8.6659568e-12
  Final line search alpha, max atom move = 1.0000000 8.6659568e-12
  Iterations, force evaluations = 134 268

velocity        all create 500 5862775 dist gaussian

fix             Thermostat all nvt temp 500 500 $(10.0*dt) drag 1.0
fix             Thermostat all nvt temp 500 500 0.010000000000000000208 drag 1.0
timestep 1e-4
run 5000
PPPM initialization ...
  G vector (1/distance) = 0.30113416
  grid = 45 32 27
  stencil order = 5
  estimated absolute RMS force accuracy = 1.5792659e-05
  estimated relative force accuracy = 1.0967394e-06
  3d grid and FFT values/proc = 22678 10080
Step Time Temp Press PotEng Enthalpy TotEng Volume Lx Ly Lz Pxx Pyy Pzz Pxy Pxz Pyz
134            0          500    41032.139   -9336.7409   -9087.7014   -9287.9452    7818.8938      30.5955      17.9376       14.247    22444.878    30558.324    70093.214   -199.03613      515.007    250.39881
Averages over the last 26 of 52 rows, steps 2700 to 5134:
Temp Press PotEng Enthalpy TotEng Volume Lx Ly Lz Pxx Pyy Pzz Pxy Pxz Pyz
499.257 59669.9 -9287.85 -8947.93 -9239.13 7818.89 30.5955 17.9376 14.247 39981 48888.2 90140.7 71.2965 152.143 78.0711
Loop time of 68.2189 on 4 procs for 5000 steps with 756 atoms

#restart 10000 dump_restart
#
#timestep 1e-3
#run 10000
#
#min_style       cg
